# select temperature and pressure (lattice constant)

variable temp index 1477.0                 # temperature of initial sample
variable a index 5.457                     # lattice constant

# select sampling parameters, important for speed/convergence

variable nthermo index 1500               # interval for thermo output
variable nevery index 10                  # stress sampling interval
variable neveryborn index 100             # Born sampling interval
variable timestep index 0.000766          # timestep
variable nlat index 3                     # number of lattice unit cells

# other settings

variable mass1 index 28.06                # mass
variable tdamp index 0.01                 # time constant for thermostat
variable seed index 123457                # seed for thermostat
variable thermostat index 1               # 0 if NVE, 1 if NVT
variable delta index 1.0e-6               # Born numdiff strain magnitude

# hard-coded rules-of-thumb for run length, etc.

variable nfreq equal 1500
variable nrepeat equal floor(1500/10)
variable nrepeatborn equal floor(1500/100)
variable nequil equal 10*1500
variable nrun equal 100*1500

# this generates a general triclinic cell
# conforming to LAMMPS cell (upper triangular)

units		metal
box 		tilt large

The 'box' command has been removed and will be ignored

# unit lattice vectors are
# a1 = (a1x 0 0)
# a2 = (a2x a2y 0)
# a3 = (a3x a3y a3z)

variable        a1x index 1
variable 	a2x index 0
variable 	a2y index 1
variable 	a3x index 0
variable 	a3y index 0
variable	a3z index 1
variable	atmp equal $a
variable	atmp equal 5.457
variable 	l index $a
variable 	l index 5.457
variable	basis index "basis 0    0    0  basis 0.25 0.25 0.25 basis 0    0.5  0.5 basis 0.25 0.75 0.75 basis 0.5  0    0.5 basis 0.75 0.25 0.75 basis 0.5  0.5  0 basis 0.75 0.75 0.25"
lattice         custom 5.457                             a1 1.0      0      0                 a2 0.0 1.0      0                 a3 0.0 0.0 1.0                 basis 0 0 0 basis 0.25 0.25 0.25 basis 0 0.5 0.5 basis 0.25 0.75 0.75 basis 0.5 0 0.5 basis 0.75 0.25 0.75 basis 0.5 0.5 0 basis 0.75 0.75 0.25     		spacing 1 1 1
Lattice spacing in x,y,z = 5.457 5.457 5.457

region		box prism 0 1.0 0 1.0 0 1.0 0.0 0.0 0.0

create_box	1 box
Created triclinic box = (0 0 0) to (5.457 5.457 5.457) with tilt (0 0 0)
create_atoms	1 box
Created 8 atoms
mass 1 28.06
replicate 3 3 3
Replication is creating a 3x3x3 = 27 times larger system...
  triclinic box = (0 0 0) to (16.371 16.371 16.371) with tilt (0 0 0)
  216 atoms
  replicate CPU = 0.001 seconds
velocity	all create 1477.0 87287

# Compute initial state

include potential.in
# NOTE: This script can be modified for different pair styles
# See in.elastic for more info.

reset_timestep 0

# Choose potential
pair_style	sw
pair_coeff * * Si.sw Si
Reading sw potential file Si.sw with DATE: 2007-06-11

# Setup neighbor style
neighbor 1.0 nsq
neigh_modify once no every 1 delay 0 check yes

# Setup MD

timestep 0.000766
fix 4 all nve
fix 5 all langevin 1477.0 1477.0 0.01 123457

thermo_style custom step temp pe press density
run 15000
Step          Temp          PotEng         Press         Density
0   1477          -936.42473     -4264.7155      2.2938491
Loop time of 1.48158 on 4 procs for 15000 steps with 216 atoms

# Run dynamics

include potential.in
# NOTE: This script can be modified for different pair styles
# See in.elastic for more info.

reset_timestep 0

# Choose potential
pair_style	sw
pair_coeff * * Si.sw Si
Reading sw potential file Si.sw with DATE: 2007-06-11

# Setup neighbor style
neighbor 1.0 nsq
neigh_modify once no every 1 delay 0 check yes

# Setup MD

timestep 0.000766
fix 4 all nve
fix 5 all langevin 1477.0 1477.0 0.01 123457

include output.in
# Setup output

# For a detailed explanation of the different terms that
# contribute to the elastic constants, see

# Stress fluctuation term F
# NOTE: Only force virial contribution to stress is used,
#       thermal velocity contributions are accounted for
#       in the kinetic term below

compute     virial all pressure NULL virial

variable v1 equal c_virial[1]
variable v2 equal c_virial[2]
variable v3 equal c_virial[3]
variable v4 equal c_virial[6]
variable v5 equal c_virial[5]
variable v6 equal c_virial[4]

variable v11 equal v_v1*v_v1
variable v22 equal v_v2*v_v2
variable v33 equal v_v3*v_v3
variable v44 equal v_v4*v_v4
variable v55 equal v_v5*v_v5
variable v66 equal v_v6*v_v6
variable v12 equal v_v1*v_v2
variable v13 equal v_v1*v_v3
variable v14 equal v_v1*v_v4
variable v15 equal v_v1*v_v5
variable v16 equal v_v1*v_v6
variable v23 equal v_v2*v_v3
variable v24 equal v_v2*v_v4
variable v25 equal v_v2*v_v5
variable v26 equal v_v2*v_v6
variable v34 equal v_v3*v_v4
variable v35 equal v_v3*v_v5
variable v36 equal v_v3*v_v6
variable v45 equal v_v4*v_v5
variable v46 equal v_v4*v_v6
variable v56 equal v_v5*v_v6

variable mytemp equal temp
variable mypress equal press
variable mype equal pe/atoms
fix avt all ave/time 10 150 1500 v_mytemp ave running
fix avp all ave/time 10 150 1500 v_mypress ave running
fix avpe all ave/time 10 150 1500 v_mype ave running
fix avv all ave/time 10 150 1500 v_v1 v_v2 v_v3 v_v4 v_v5 v_v6 ave running
fix avvsq all ave/time 10 150 1500 v_v11 v_v22 v_v33 v_v44 v_v55 v_v66 v_v12 v_v13 v_v14 v_v15 v_v16 v_v23 v_v24 v_v25 v_v26 v_v34 v_v35 v_v36 v_v45 v_v46 v_v56 ave running

# bar to GPa
variable pconv equal 1.0e5/1.0e9
variable cunits index GPa
# metal unit constants from LAMMPS
# force->nktv2p = 1.6021765e6;
# force->boltz = 8.617343e-5;
variable boltz equal 8.617343e-5
variable nktv2p equal 1.6021765e6
variable vkt equal vol/(8.617343e-05*1477.0)/1602176.5
variable ffac equal 0.0001*0.0215159929384811

variable F11 equal -(f_avvsq[1]-f_avv[1]*f_avv[1])*2.15159929384811e-06
variable F22 equal -(f_avvsq[2]-f_avv[2]*f_avv[2])*2.15159929384811e-06
variable F33 equal -(f_avvsq[3]-f_avv[3]*f_avv[3])*2.15159929384811e-06
variable F44 equal -(f_avvsq[4]-f_avv[4]*f_avv[4])*2.15159929384811e-06
variable F55 equal -(f_avvsq[5]-f_avv[5]*f_avv[5])*2.15159929384811e-06
variable F66 equal -(f_avvsq[6]-f_avv[6]*f_avv[6])*2.15159929384811e-06

variable F12 equal -(f_avvsq[7]-f_avv[1]*f_avv[2])*2.15159929384811e-06
variable F13 equal -(f_avvsq[8]-f_avv[1]*f_avv[3])*2.15159929384811e-06
variable F14 equal -(f_avvsq[9]-f_avv[1]*f_avv[4])*2.15159929384811e-06
variable F15 equal -(f_avvsq[10]-f_avv[1]*f_avv[5])*2.15159929384811e-06
variable F16 equal -(f_avvsq[11]-f_avv[1]*f_avv[6])*2.15159929384811e-06

variable F23 equal -(f_avvsq[12]-f_avv[2]*f_avv[3])*2.15159929384811e-06
variable F24 equal -(f_avvsq[13]-f_avv[2]*f_avv[4])*2.15159929384811e-06
variable F25 equal -(f_avvsq[14]-f_avv[2]*f_avv[5])*2.15159929384811e-06
variable F26 equal -(f_avvsq[15]-f_avv[2]*f_avv[6])*2.15159929384811e-06

variable F34 equal -(f_avvsq[16]-f_avv[3]*f_avv[4])*2.15159929384811e-06
variable F35 equal -(f_avvsq[17]-f_avv[3]*f_avv[5])*2.15159929384811e-06
variable F36 equal -(f_avvsq[18]-f_avv[3]*f_avv[6])*2.15159929384811e-06

variable F45 equal -(f_avvsq[19]-f_avv[4]*f_avv[5])*2.15159929384811e-06
variable F46 equal -(f_avvsq[20]-f_avv[4]*f_avv[6])*2.15159929384811e-06

variable F56 equal -(f_avvsq[21]-f_avv[5]*f_avv[6])*2.15159929384811e-06

# Born term

compute     born all born/matrix numdiff 1.0e-6 virial
fix         avborn all ave/time 100 15 1500 c_born[*] ave running

variable bfac equal 0.0001*1602176.5/vol
variable B vector f_avborn*0.036516128938577

# Kinetic term

variable kfac equal 0.0001*1602176.5*atoms*8.617343e-05*1477.0/vol
variable K11 equal 2.0*1.00390440086865
variable K22 equal 2.0*1.00390440086865
variable K33 equal 2.0*1.00390440086865
variable K44 equal 1.00390440086865
variable K55 equal 1.00390440086865
variable K66 equal 1.00390440086865

# Add F, K, and B together

variable C11 equal v_F11+v_B[1]+v_K11
variable C22 equal v_F22+v_B[2]+v_K22
variable C33 equal v_F33+v_B[3]+v_K33
variable C44 equal v_F44+v_B[4]+v_K44
variable C55 equal v_F55+v_B[5]+v_K55
variable C66 equal v_F66+v_B[6]+v_K66

variable C12 equal v_F12+v_B[7]
variable C13 equal v_F13+v_B[8]
variable C14 equal v_F14+v_B[9]
variable C15 equal v_F15+v_B[10]
variable C16 equal v_F16+v_B[11]

variable C23 equal v_F23+v_B[12]
variable C24 equal v_F24+v_B[13]
variable C25 equal v_F25+v_B[14]
variable C26 equal v_F26+v_B[15]

variable C34 equal v_F34+v_B[16]
variable C35 equal v_F35+v_B[17]
variable C36 equal v_F36+v_B[18]

variable C45 equal v_F45+v_B[19]
variable C46 equal v_F46+v_B[20]

variable C56 equal v_F56+v_B[21]

thermo        1500
thermo_style custom step temp pe press density f_avt f_avp f_avpe v_F11 v_F22 v_F33 v_F44 v_F55 v_F66 v_F12 v_F13 v_F23 v_B[*8] v_B[12]

thermo_modify norm no

run 150000
Step          Temp          PotEng         Press         Density         f_avt          f_avp          f_avpe         v_F11          v_F22          v_F33          v_F44          v_F55          v_F66          v_F12          v_F13          v_F23          v_B[1]         v_B[2]         v_B[3]         v_B[4]         v_B[5]         v_B[6]         v_B[7]         v_B[8]        v_B[12]
0   1428.309      -893.40243     -506.20349      2.2938491      0              0              0              0              0              0              0              0              0              0              0              0              0              0              0              0              0              0              0              0              0
Averages over the last 51 of 101 rows, steps 75000 to 150000:
Temp PotEng Press Density f_avt f_avp f_avpe v_F11 v_F22 v_F33 v_F44 v_F55 v_F66 v_F12 v_F13 v_F23 v_B[1] v_B[2] v_B[3] v_B[4] v_B[5] v_B[6] v_B[7] v_B[8] v_B[12]
1499.35 -892.426 -46.6779 2.29385 1483.69 99.1668 -4.13159 -5.47013 -5.42738 -5.43753 -54.0837 -55.7642 -55.4444 -0.896042 -0.844907 -0.842174 136.681 136.676 136.611 99.8468 99.8352 99.9117 74.7826 74.7248 74.7053
Loop time of 18.2029 on 4 procs for 150000 steps with 216 atoms

# Output final values

include final_output.in
# Average moduli for cubic crystals

variable C11cubic equal (133.188974219595+133.189723753073+133.138994205429)/3.0
variable C12cubic equal (73.8763258824441+73.8801135017861+73.8898492459823)/3.0
variable C44cubic equal (46.9881596973902+44.7617526165931+46.2932091298334)/3.0

variable bulkmodulus equal (133.172564059366+2*73.8820962100708)/3.0
variable shearmodulus1 equal 46.0143738146056
variable shearmodulus2 equal (133.172564059366-73.8820962100708)/2.0
variable poissonratio equal 1.0/(1.0+133.172564059366/73.8820962100708)

# For Stillinger-Weber silicon, the analytical results
# are known to be (E. R. Cowley, 1988):
#               C11 = 151.4 GPa
#               C12 = 76.4 GPa
#               C44 = 56.4 GPa

#print "========================================="
#print "Components of the Elastic Constant Tensor"
#print "========================================="

Elastic Constant C11 = 133.188974219595 GPa
Elastic Constant C22 = 133.189723753073 GPa
Elastic Constant C33 = 133.138994205429 GPa

Elastic Constant C12 = 73.8763258824441 GPa
Elastic Constant C13 = 73.8801135017861 GPa
Elastic Constant C23 = 73.8898492459823 GPa

Elastic Constant C44 = 46.9881596973902 GPa
Elastic Constant C55 = 44.7617526165931 GPa
Elastic Constant C66 = 46.2932091298334 GPa

Elastic Constant C14 = 0.265097081679859 GPa
Elastic Constant C15 = -0.061772717596552 GPa
Elastic Constant C16 = -0.269356644752641 GPa

Elastic Constant C24 = 0.509730392804277 GPa
Elastic Constant C25 = -0.309381388700557 GPa
Elastic Constant C26 = 0.135992199455437 GPa

Elastic Constant C34 = 0.205535166577658 GPa
Elastic Constant C35 = 0.0748061185077146 GPa
Elastic Constant C36 = 0.153083177626209 GPa

Elastic Constant C45 = 0.789585024396366 GPa
Elastic Constant C46 = -0.353765107811331 GPa
Elastic Constant C56 = -0.0232993838256713 GPa

print "========================================="
=========================================
print "Average properties for a cubic crystal"
Average properties for a cubic crystal
print "========================================="
=========================================

Bulk Modulus = 93.6455854931692 GPa
Shear Modulus 1 = 46.0143738146056 GPa
Shear Modulus 2 = 29.6452339246476 GPa
Poisson Ratio = 0.356824116462432

# summarize sampling protocol

variable tmp equal atoms
Number of atoms = 216
Stress sampling interval = 10
variable tmp equal 150000/10
Stress sample count = 15000
Born sampling interval = 100
variable tmp equal 150000/100
Born sample count = 1500
