LAMMPS (10 Sep 2025 - Development - patch_10Sep2025-713-gfb48033c78)
# -----------------------------
# Example script for self-propelled and self-aligning particles performing 2D collective motion using ellipsoids
# -----------------------------
variable NParticles equal 10000
variable Seed equal 12345
variable BoxSize equal 200

variable Diameter equal 0.62035         # Mass 1 for spheres and density=1
variable ActiveForce equal 4.0
variable SelfAlignment equal 0.1
variable RelaxTime equal 0.5            # Relaxation time to terminal velocity for mass 1
variable Temperature equal 0.002
variable RotTempPrefactor equal 0.5

variable WCA_cut equal 1.122

# -----------------------------
# Generic Simulation parameters
# -----------------------------
units       lj
dimension   2
boundary    p p p
atom_style  ellipsoid

# -----------------------------
# Simulation box and atoms
# -----------------------------
region       box block 0 200 0 200 -0.5 0.5
create_box   1 box
Created orthogonal box = (0 0 -0.5) to (200 200 0.5)
create_atoms 1 random 10000 12345 box
Created 10000 atoms

# -----------------------------
# Equilibration run to remove overlaps
# -----------------------------
pair_style      soft 1.122
pair_coeff      * * 0.0
variable        prefactor equal ramp(0,100) # strength of soft potential is increase slowly over time

fix             1 all brownian 0.0001 12345 gamma_t 1.0
fix             2 all adapt 1 pair soft a * * v_prefactor
thermo          1000
run             5000
Generated 0 of 0 mixed pair_coeff terms from geometric mixing rule
Step          Temp          E_pair         E_mol          TotEng         Press
0   0              0              0              0              0
Loop time of 1.60302 on 1 procs for 5000 steps with 10000 atoms

unfix           1
unfix           2

# -----------------------------
# Mass, shape, velocities, orientation
# -----------------------------
velocity    all create 0.0 12345 mom yes rot yes
set         type 1 shape 0.62035 0.62035 0.62035
Setting atom values ...
  10000 settings made for shape
set         type 1 quat/random 12345
Setting atom values ...
  10000 settings made for quat/random

# -----------------------------
# Interactions (WCA) - spherical
# -----------------------------
pair_style      lj/cut 1.122
pair_coeff      * * 1.0 1.0

# -----------------------------
# Individual dynamics
# -----------------------------
fix rotLangevin all langevin 0.002 0.002 0.5 12345 angmom 0.5
fix active all propel/self quat 4
fix align all align/self quat 0.1

# -----------------------------
# Integrators
# -----------------------------
fix nve_rot all nve/asphere
fix dipole2D all enforce2d # force z-components to zero every timestep

# -----------------------------
# Output
# -----------------------------
thermo      100
#dump        1 all custom 100 collective_motion_quat.lammpstrj id type x y vx vy angmomx angmomy angmomz tqx tqy tqz

# -----------------------------
# Run
# -----------------------------
timestep    0.01
run         2000
Generated 0 of 0 mixed pair_coeff terms from geometric mixing rule
Step          Temp          E_pair         E_mol          TotEng         Press
5000   0             -0.00149993     0             -0.00149993    -0.2657518
Averages over the last 11 of 21 rows, steps 6000 to 7000:
Temp E_pair E_mol TotEng Press
1.59795 -0.219516 0 1.37828 4.92907
Loop time of 3.84647 on 1 procs for 2000 steps with 10000 atoms
