LAMMPS (10 Sep 2025 - Development - patch_10Sep2025-628-g2877ee4689-modified)
# -----------------------------
# Example script for self-propelled and self-aligning particles performing 2D collective motion using sphere + dipole
# -----------------------------
variable NParticles equal 10000
variable Seed equal 12345
variable BoxSize equal 200

variable Mass equal 1.0
variable ActiveForce equal 2.0
variable SelfAlignment equal 0.6
variable RelaxTime equal 0.2            # Relaxation time to terminal velocity for mass 1
variable Temperature equal 0.01

variable WCA_cut equal 1.122

# -----------------------------
# Generic Simulation parameters
# -----------------------------
units       lj
dimension   2
boundary    p p p
atom_style  hybrid sphere dipole

# -----------------------------
# Simulation box and atoms
# -----------------------------
region       box block 0 200 0 200 -0.5 0.5
create_box   2 box
Created orthogonal box = (0 0 -0.5) to (200 200 0.5)
create_atoms 1 random 10000 12345 box
Created 10000 atoms

# -----------------------------
# Equilibration run to remove overlaps
# -----------------------------
pair_style      soft 1.122
pair_coeff      * * 0.0
variable        prefactor equal ramp(0,100) # strength of soft potential is increase slowly over time

fix             1 all brownian 0.0001 12345 gamma_t 1.0
fix             2 all adapt 1 pair soft a * * v_prefactor
thermo          1000
run             5000
Generated 0 of 1 mixed pair_coeff terms from geometric mixing rule
Step          Temp          E_pair         E_mol          TotEng         Press
0   0              0              0              0              0
Loop time of 0.447523 on 4 procs for 5000 steps with 10000 atoms

unfix           1
unfix           2

# -----------------------------
# Mass, dipole, velocities
# -----------------------------
mass        * 1
set         type * dipole/random 12345 1.0
Setting atom values ...
  10000 settings made for dipole/random
velocity    all create 0.0 12345 mom yes rot yes

# -----------------------------
# Interactions (WCA)
# -----------------------------
pair_style      lj/cut 1.122
pair_coeff      * * 1 1 1.122

# -----------------------------
# Individual dynamics
# -----------------------------
fix rotLangevin all langevin 0.01 0.01 0.2 12345 omega yes
fix active all propel/self dipole 2
fix align all align/self dipole -0.6

# -----------------------------
# Integrators
# -----------------------------
fix nve_rot all nve/sphere update dipole
fix dipole2D all enforce2d # force z-components to zero every timestep

# -----------------------------
# Output
# -----------------------------
thermo      100
#dump        1 all custom 100 collective_motion_dipole.lammpstrj id type x y vx vy mux muy omegax omegay omegaz tqx tqy tqz

# -----------------------------
# Run
# -----------------------------
timestep    0.01
run         2000
Generated 0 of 1 mixed pair_coeff terms from geometric mixing rule
Step          Temp          E_pair         E_mol          TotEng         Press
5000   0             -0.00089997679  0             -0.00089997679 -0.24569778
Averages over the last 11 of 21 rows, steps 6000 to 7000:
Temp E_pair E_mol TotEng Press
0.0954991 -0.49388 0 -0.39839 1.49793
Loop time of 0.535767 on 4 procs for 2000 steps with 10000 atoms
