LAMMPS (10 Sep 2025 - Development - patch_10Sep2025-520-gd2199aa57b-modified)
# Numerical difference calculation
# of Born matrix

# Note that because of cubic symmetry and central forces, we have:
# C11, pure axial == positive mean value: 1,2,3
# C44==C23, pure shear == positive mean value, exactly match in pairs: (4,12),(5,8),(6,7)
# C14==C56, shear/axial(normal) == zero mean, exactly match in pairs: (9,21),(14,20),(18,19)
# C15, shear/axial(in-plane) == zero mean: 10,11,13,15,16,17

# adjustable parameters

units           real
variable        nsteps index 10000    # length of run
variable        nthermo index  1000    # thermo output interval
variable        nlat equal 5           # size of box
variable        T    equal 60.         # Temperature in K
variable        rho  equal 5.405       # Lattice spacing in A

atom_style      atomic

lattice         fcc 5.405
Lattice spacing in x,y,z = 5.405 5.405 5.405
region          box block 0 5 0 5 0 5
create_box      1 box
Created orthogonal box = (0 0 0) to (27.025 27.025 27.025)
create_atoms    1 box
Created 500 atoms

mass            * 39.948

velocity        all create 60 87287 loop geom
velocity        all zero linear

pair_style      lj/cut 12.0
pair_coeff      1 1 0.238067 3.405

neighbor        0.0 bin
neigh_modify    every 1 delay 0 check no

variable vol equal vol
thermo 100
fix aL all ave/time 1 1 1 v_vol ave running
fix NPT all npt temp $T $T 100 aniso 1. 1. 1000 fixedpoint 0. 0. 0.
fix NPT all npt temp 60 $T 100 aniso 1. 1. 1000 fixedpoint 0. 0. 0.
fix NPT all npt temp 60 60 100 aniso 1. 1. 1000 fixedpoint 0. 0. 0.

run 2000
Generated 0 of 0 mixed pair_coeff terms from geometric mixing rule
Step          Temp          E_pair         E_mol          TotEng         Press          Volume
0   60            -974.97988      0             -885.73443     -1549.5634      19737.726
Averages over the last 11 of 21 rows, steps 1000 to 2000:
Temp E_pair E_mol TotEng Press Volume
59.4481 -892.693 0 -804.269 6.8573 19773.5
Loop time of 1.19313 on 4 procs for 2000 steps with 500 atoms

unfix NPT

variable newL equal "f_aL^(1./3.)"
change_box all x final 0 26.9850129540338 y final 0. 26.9850129540338 z final 0. 26.9850129540338 remap units box
Changing box ...
  orthogonal box = (0 0 0) to (26.985013 26.94049 27.008247)
  orthogonal box = (0 0 0) to (26.985013 26.985013 27.008247)
  orthogonal box = (0 0 0) to (26.985013 26.985013 26.985013)

unfix aL

reset_timestep 0

# Conversion variables
variable kb        equal 1.38065e-23    # J/K
variable Myvol     equal "vol*10^-30" # Volume in m^3
variable kbt       equal "v_kb*v_T"
variable Nat       equal atoms
variable Rhokbt    equal "v_kbt*v_Nat/v_Myvol"
variable at2Pa     equal 101325
variable kcalmol2J equal "4183.9954/(6.022e23)"
variable C1        equal "v_kcalmol2J/v_Myvol" # Convert Cb from energy to pressure units
variable C2        equal "v_Myvol/v_kbt"       # Factor for Cfl terms
variable Pa2GPa    equal 1e-9

# Born compute giving <C^b> terms
# The six virial stress component to compute <C^fl>
compute     VIR all pressure NULL virial
compute     born all born/matrix numdiff 1e-6 VIR
variable s1 equal "-c_VIR[1]*v_at2Pa"
variable s2 equal "-c_VIR[2]*v_at2Pa"
variable s3 equal "-c_VIR[3]*v_at2Pa"
variable s6 equal "-c_VIR[4]*v_at2Pa"
variable s5 equal "-c_VIR[5]*v_at2Pa"
variable s4 equal "-c_VIR[6]*v_at2Pa"
variable press equal press

# Average of Born term and vector to store stress
# for post processing
fix CB all ave/time 1 1000 1000 c_born[*] ave running file born.out overwrite
fix CPR all ave/time 1 1 1 c_VIR[*] file vir.out
fix APR all ave/time 1 1 1 v_press ave running
fix VEC all vector 1 v_s1 v_s2 v_s3 v_s4 v_s5 v_s6

thermo      1000
thermo_style    custom step temp press f_APR c_born[1] f_CB[1] c_born[12] f_CB[12] c_born[4] f_CB[4]
thermo_modify line multi

fix     1 all nvt temp $T $T 100
fix     1 all nvt temp 60 $T 100
fix     1 all nvt temp 60 60 100

run         10000
Generated 0 of 0 mixed pair_coeff terms from geometric mixing rule
Step     =              0 Temp     =        54.8600 Press    =       -74.9874
f_APR    =       -74.9874 c_born[1] =      9407.2808 f_CB[1]  =         0.0000
c_born[12] =      5290.6926 f_CB[12] =         0.0000 c_born[4] =      5290.6926
f_CB[4]  =         0.0000
Step     =           1000 Temp     =        56.1005 Press    =        93.2723
f_APR    =       104.8993 c_born[1] =     10001.7099 f_CB[1]  =      9796.8333
c_born[12] =      5478.0633 f_CB[12] =      5453.1318 c_born[4] =      5478.0633
f_CB[4]  =      5453.9099
Step     =           2000 Temp     =        59.2245 Press    =       164.2019
f_APR    =        90.3569 c_born[1] =     10217.4686 f_CB[1]  =      9829.5352
c_born[12] =      5541.1651 f_CB[12] =      5465.4227 c_born[4] =      5541.1651
f_CB[4]  =      5465.9156
Step     =           3000 Temp     =        62.3421 Press    =       138.9920
f_APR    =       103.8105 c_born[1] =      9891.8953 f_CB[1]  =      9872.8364
c_born[12] =      5518.1109 f_CB[12] =      5467.6789 c_born[4] =      5518.1109
f_CB[4]  =      5468.3477
Step     =           4000 Temp     =        58.1487 Press    =       136.4624
f_APR    =       107.3823 c_born[1] =     10092.1431 f_CB[1]  =      9886.6360
c_born[12] =      5406.3974 f_CB[12] =      5470.8460 c_born[4] =      5406.3974
f_CB[4]  =      5471.2604
Step     =           5000 Temp     =        60.3351 Press    =       -21.9127
f_APR    =       101.0136 c_born[1] =      9749.8387 f_CB[1]  =      9866.1222
c_born[12] =      5324.9270 f_CB[12] =      5470.8171 c_born[4] =      5324.9270
f_CB[4]  =      5471.3358
Step     =           6000 Temp     =        57.7282 Press    =       157.6900
f_APR    =       100.3234 c_born[1] =     10127.0283 f_CB[1]  =      9868.7751
c_born[12] =      5689.6386 f_CB[12] =      5472.6104 c_born[4] =      5689.6386
f_CB[4]  =      5472.7877
Step     =           7000 Temp     =        59.5948 Press    =       135.9651
f_APR    =       101.9810 c_born[1] =     10151.6081 f_CB[1]  =      9885.2115
c_born[12] =      5473.6704 f_CB[12] =      5471.9053 c_born[4] =      5473.6704
f_CB[4]  =      5472.7481
Step     =           8000 Temp     =        61.7547 Press    =        41.1860
f_APR    =       105.3152 c_born[1] =      9675.8645 f_CB[1]  =      9897.1502
c_born[12] =      5267.1241 f_CB[12] =      5470.6687 c_born[4] =      5267.8799
f_CB[4]  =      5471.4666
Step     =           9000 Temp     =        59.2478 Press    =       146.6808
f_APR    =       104.7030 c_born[1] =      9964.5592 f_CB[1]  =      9889.2649
c_born[12] =      5504.1222 f_CB[12] =      5469.1559 c_born[4] =      5504.1222
f_CB[4]  =      5469.8494
Step     =          10000 Temp     =        59.4645 Press    =        96.1963
f_APR    =       107.2322 c_born[1] =      9888.8051 f_CB[1]  =      9902.6253
c_born[12] =      5573.7788 f_CB[12] =      5475.7021 c_born[4] =      5573.7788
f_CB[4]  =      5476.6716
Loop time of 32.6336 on 4 procs for 10000 steps with 500 atoms

# Compute vector averages
# Note the indice switch.
# LAMMPS convention is NOT the Voigt notation.
variable aves1 equal "ave(f_VEC[1])"
variable aves2 equal "ave(f_VEC[2])"
variable aves3 equal "ave(f_VEC[3])"
variable aves4 equal "ave(f_VEC[6])"
variable aves5 equal "ave(f_VEC[5])"
variable aves6 equal "ave(f_VEC[4])"

# Computing the covariance through the <s_{i}s_{j}>-<s_i><s_j>
# is numerically instable. Here we go through the <(s-<s>)^2>
# definition.

# Computing difference relative to average values
variable ds1 vector "f_VEC[1]-v_aves1"
variable ds2 vector "f_VEC[2]-v_aves2"
variable ds3 vector "f_VEC[3]-v_aves3"
variable ds4 vector "f_VEC[4]-v_aves4"
variable ds5 vector "f_VEC[5]-v_aves5"
variable ds6 vector "f_VEC[6]-v_aves6"

# Squaring and averaging
variable dds1 vector "v_ds1*v_ds1"
variable dds2 vector "v_ds2*v_ds2"
variable dds3 vector "v_ds3*v_ds3"
variable vars1 equal "ave(v_dds1)"
variable vars2 equal "ave(v_dds2)"
variable vars3 equal "ave(v_dds3)"
variable C11 equal "v_Pa2GPa*(v_C1*f_CB[1] - v_C2*v_vars1 + 2*v_Rhokbt)"
variable C22 equal "v_Pa2GPa*(v_C1*f_CB[2] - v_C2*v_vars2 + 2*v_Rhokbt)"
variable C33 equal "v_Pa2GPa*(v_C1*f_CB[3] - v_C2*v_vars3 + 2*v_Rhokbt)"

variable dds12 vector "v_ds1*v_ds2"
variable dds13 vector "v_ds1*v_ds3"
variable dds23 vector "v_ds2*v_ds3"
variable vars12 equal "ave(v_dds12)"
variable vars13 equal "ave(v_dds13)"
variable vars23 equal "ave(v_dds23)"
variable C12 equal "v_Pa2GPa*(v_C1*f_CB[7] - v_C2*v_vars12)"
variable C13 equal "v_Pa2GPa*(v_C1*f_CB[8] - v_C2*v_vars13)"
variable C23 equal "v_Pa2GPa*(v_C1*f_CB[12] - v_C2*v_vars23)"

variable dds4 vector "v_ds4*v_ds4"
variable dds5 vector "v_ds5*v_ds5"
variable dds6 vector "v_ds6*v_ds6"
variable vars4 equal "ave(v_dds4)"
variable vars5 equal "ave(v_dds5)"
variable vars6 equal "ave(v_dds6)"
variable C44 equal "v_Pa2GPa*(v_C1*f_CB[4] - v_C2*v_vars4 + v_Rhokbt)"
variable C55 equal "v_Pa2GPa*(v_C1*f_CB[5] - v_C2*v_vars5 + v_Rhokbt)"
variable C66 equal "v_Pa2GPa*(v_C1*f_CB[6] - v_C2*v_vars6 + v_Rhokbt)"

variable aC11 equal "(v_C11 + v_C22 + v_C33)/3."
variable aC12 equal "(v_C12 + v_C13 + v_C23)/3."
variable aC44 equal "(v_C44 + v_C55 + v_C66)/3."

print """
"""

C11 = 2.4565071780976
C12 = 1.29958257097606
C44 = 1.44306985596059
