LAMMPS (10 Sep 2025 - Development - patch_10Sep2025-285-g0b912432e9-modified)
Processor partition = 1
variable ibead uloop 32 pad

units lj
atom_style atomic
atom_modify map yes
boundary p p p
pair_style lj/cut 2.8015
read_data data.lj02
Reading data file ...
  orthogonal box = (-3.4945131 -3.4945131 -3.4945131) to (3.4945131 3.4945131 3.4945131)
  reading atoms ...
  200 atoms

pair_coeff    * * 1.0 1.0
pair_modify shift yes

mass 1 1.0

timestep 0.00044905847

fix 1 all pimd/langevin ensemble nvt integrator obabo temp 1.00888 sp 0.1924 thermostat PILE_L 02

thermo_style custom step temp f_1[*] vol press
thermo 100
thermo_modify norm no

#dump_modify dcd sort id format line "%d %d %.16f %.16f %.16f %.16f %.16f %.16f %d %d %d %.16f %.16f %.16f"

run 1000
Generated 0 of 0 mixed pair_coeff terms from geometric mixing rule
Step          Temp          f_1[1]         f_1[2]         f_1[3]         f_1[4]         f_1[5]         f_1[6]         f_1[7]         f_1[8]         f_1[9]        f_1[10]         Volume         Press
0   0              0              843768.92     -904.74343      841988.51     -421279.13      253.30998      382.47517     -1646.5336     -1.9663356     -0.82731217     341.38937     -0.58528882
Averages over the last 6 of 11 rows, steps 500 to 1000:
Temp f_1[1] f_1[2] f_1[3] f_1[4] f_1[5] f_1[6] f_1[7] f_1[8] f_1[9] f_1[10] Volume Press
2.04867 611.527 594.522 -520.227 2945.57 308.067 1247.59 308.977 0.0211015 11.8073 6.9748 341.389 5.44791
Loop time of 0.188222 on 1 procs for 1000 steps with 200 atoms
