LAMMPS (10 Sep 2025 - Development - patch_5May2020-24908-gd4c3ee3c41-modified)

units           lj
lattice         fcc 0.8442
Lattice spacing in x,y,z = 1.6795962 1.6795962 1.6795962
boundary        f f f

region          ball   sphere   0.0 0.0 0.0 5.0
region          box    block  -10 10 -10 10 -10 10
region          half   block  -10  0 -10 10 -10 10

# add molecule ids so we can use chunk/atom
fix             0   all property/atom mol ghost yes

create_box      2  box
Created orthogonal box = (-16.795962 -16.795962 -16.795962) to (16.795962 16.795962 16.795962)
create_atoms    1  region ball
Created 2123 atoms

pair_style      lj/cut 4.0
pair_coeff      * *  1.0 1.0
mass            *    1.0
set             group all mol 1
Setting atom values ...
  2123 settings made for mol

# label half the sphere with a different type for better visualization
set             region half   type 2
Setting atom values ...
  1142 settings made for type

# use a dynamic group (may require a patch to fix addtorque with older versions of LAMMPS)
group           ball   dynamic all   region ball
dynamic group ball defined

neigh_modify    delay 2  every 1  check yes

minimize        0.0  0.0    1000  10000
Generated 0 of 1 mixed pair_coeff terms from geometric mixing rule
Step          Temp          E_pair         E_mol          TotEng         Press
0   0             -6.2285099      0             -6.2285099     -0.38871568
Loop time of 2.98891 on 4 procs for 1000 steps with 2123 atoms

Minimization stats:
  Stopping criterion = max iterations
  Energy initial, next-to-last, final =
  Force two-norm initial, final = 197.76248 3.3991762e-12
  Force max component initial, final = 7.8870448 2.2543079e-13
  Final line search alpha, max atom move = 1 2.2543079e-13
  Iterations, force evaluations = 1000 1994

reset_timestep  0

velocity        all create 1.2 12351235

fix             1   all  nve
fix             2   all  wall/reflect  xlo EDGE xhi EDGE ylo EDGE yhi EDGE zlo EDGE zhi EDGE

compute 1 all chunk/atom molecule
compute 2 ball omega/chunk 1
compute 3 ball inertia/chunk 1

# compute rotational kinetic energy: 1/2 * I * omega**2
variable r_ke_x equal c_2[1][1]*c_2[1][1]*c_3[1][1]*0.5
variable r_ke_y equal c_2[1][2]*c_2[1][2]*c_3[1][2]*0.5
variable r_ke_z equal c_2[1][3]*c_2[1][3]*c_3[1][3]*0.5

# output moments of inertia for x,y,z and angular velocity as well as rotational kinertic energy

thermo_style custom step ke pe c_3[1][1] c_3[1][2] c_3[1][3] c_2[1][1] c_2[1][2] c_2[1][3] v_r_ke_x v_r_ke_y v_r_ke_z
thermo 500

# dump 1 all atom 100 dump.lammpstrj

# dump 2 all movie 10 ball.mp4 type mass

# equilibration w/o torque added
run 1000 post no
Generated 0 of 1 mixed pair_coeff terms from geometric mixing rule
Step         KinEng         PotEng       c_3[1][1]      c_3[1][2]      c_3[1][3]      c_2[1][1]      c_2[1][2]      c_2[1][3]       v_r_ke_x       v_r_ke_y       v_r_ke_z
0   1.7991521     -7.3616908      51125.265      51125.265      51125.265      0.0040198435  -0.0024237256   0.0011306245   0.4130702      0.15016629     0.032677011
Loop time of 0.967242 on 4 procs for 1000 steps with 2123 atoms

# start spinning the ball. rotation around z should increase and Erot_z should grow
fix 4 ball addtorque/group 0.0 0.0 200.0
run 10000 upto  post no
Generated 0 of 1 mixed pair_coeff terms from geometric mixing rule
Step         KinEng         PotEng       c_3[1][1]      c_3[1][2]      c_3[1][3]      c_2[1][1]      c_2[1][2]      c_2[1][3]       v_r_ke_x       v_r_ke_y       v_r_ke_z
1000   0.80269935    -6.3456699      53966.859      54192.03       54298.931      0.0040875347  -0.0023098179   0.00077010445  0.45083753     0.14456425     0.016101285
Averages over the last 10 of 19 rows, steps 5500 to 10000:
KinEng PotEng c_3[1][1] c_3[1][2] c_3[1][3] c_2[1][1] c_2[1][2] c_2[1][3] v_r_ke_x v_r_ke_y v_r_ke_z
0.931905 -6.2696 53482.4 53481 54351.6 0.00346585 -0.0030376 0.121738 0.349314 0.255086 421.322
Loop time of 9.52719 on 4 procs for 9000 steps with 2123 atoms

# continue without adding more torque. rotation continues at fixed speed
unfix 4
run 5000
Generated 0 of 1 mixed pair_coeff terms from geometric mixing rule
Step         KinEng         PotEng       c_3[1][1]      c_3[1][2]      c_3[1][3]      c_2[1][1]      c_2[1][2]      c_2[1][3]       v_r_ke_x       v_r_ke_y       v_r_ke_z
10000   1.0842496     -6.2813769      53915.335      53215.349      54811.914      0.0057588915  -0.0027187211   0.16143259     0.8940465      0.19666915     714.21247
Averages over the last 6 of 11 rows, steps 12500 to 15000:
KinEng PotEng c_3[1][1] c_3[1][2] c_3[1][3] c_2[1][1] c_2[1][2] c_2[1][3] v_r_ke_x v_r_ke_y v_r_ke_z
1.04702 -6.2437 51426 51585.5 55181.2 0.00232962 -0.00128697 0.154025 0.160438 0.0646739 654.578
Loop time of 5.08042 on 4 procs for 5000 steps with 2123 atoms
