LAMMPS (22 Jul 2025 - Development - patch_2Apr2025-1775-g5550686acc-modified)
# ------ 2D Ice Cube Pour ------ #

dimension          2
units              lj
atom_style         hybrid rheo/thermal bond
boundary           m m p
comm_modify        vel yes
newton             off
special_bonds      lj 0.0 1.0 1.0 coul 1.0 1.0 1.0

region             box block -25 25 0 100 -0.01 0.01 units box
create_box         1 box bond/types 1 extra/bond/per/atom 15 extra/special/per/atom 50
Created orthogonal box = (-25 0 -0.01) to (25 100 0.01)

region             fluid block $(xlo+1) $(xhi-1) $(ylo+1) $(ylo+30) EDGE EDGE units box
region             fluid block -24 $(xhi-1) $(ylo+1) $(ylo+30) EDGE EDGE units box
region             fluid block -24 24 $(ylo+1) $(ylo+30) EDGE EDGE units box
region             fluid block -24 24 1 $(ylo+30) EDGE EDGE units box
region             fluid block -24 24 1 30 EDGE EDGE units box
lattice            sq 1.0
Lattice spacing in x,y,z = 1 1 1
create_atoms       1 region fluid
Created 1470 atoms

set                group all sph/e 8.0
Setting atom values ...
  1470 settings made for sph/e

# ------ Model parameters ------#

variable           cut equal 3.0
variable           n equal 1.0
variable           rho0 equal 1.0
variable           cs equal 1.0
variable           mp equal 1/1
variable           zeta equal 0.05
variable           kappa equal 0.01*1/1
variable           dt_max equal 0.1*3/1/3
variable           eta equal 0.05
variable           Cv equal 1.0
variable           L equal 1.0
variable           Tf equal 1.0

mass               * 1
timestep           0.1

pair_style         hybrid/overlay rheo 3 artificial/visc 0.05 rheo/solid
pair_coeff         * * rheo
pair_coeff         * * rheo/solid 1.0 1.0 1.0

bond_style         bpm/spring
bond_coeff         1 1.0 1.0 1.0

# ------ Pour particles ------#

molecule        my_mol "square.mol"
Read molecule template my_mol:
#Made with create_mol.py
  1 molecules
  0 fragments
  0 bodies
  100 atoms with max type 1
  342 bonds with max type 1
  0 angles with max type 0
  0 dihedrals with max type 0
  0 impropers with max type 0

# Wall region extends far enough in z to avoid contact
region          wall block EDGE EDGE EDGE EDGE -5 5 side in open 4 units box
region          drop block -16 16 70 90 EDGE EDGE side in units box

fix             1 all rheo 3 quintic 0                            thermal                            shift                            surface/detection coordination 22 8
fix             2 all rheo/viscosity * constant 0.05
fix             3 all rheo/pressure * linear
fix             4 all rheo/thermal conductivity * constant 0.01                                    specific/heat * constant 1                                    Tfreeze * constant 1                                    latent/heat * constant 1                                    react 1.5 1
fix             5 all wall/region wall harmonic 1.0 1.0 1.0
fix             6 all gravity 2e-4 vector 0 -1 0
fix             7 all deposit 8 0 1500 37241459 mol my_mol region drop near 2.0 vy -0.02 -0.02
For more information see https://docs.lammps.org/err0026 (../molecule.cpp:3634)
fix             8 all enforce2d

compute         rho all rheo/property/atom rho
compute         phase all rheo/property/atom phase
compute         temp all rheo/property/atom temperature
compute         eng all rheo/property/atom energy
compute         nbond all nbond/atom

# ------ Output & Run ------ #

thermo          200
thermo_style    custom step time ke press atoms

#dump            1 all custom 200 atomDump id type x y vx vy fx fy c_phase c_temp c_eng c_nbond c_rho

run             30000

CITE-CITE-CITE-CITE-CITE-CITE-CITE-CITE-CITE-CITE-CITE-CITE-CITE

Your simulation uses code contributions which should be cited:

- BPM bond style: doi:10.1039/D3SM01373A

@Article{Clemmer2024,
 author =  {Clemmer, Joel T. and Monti, Joseph M. and Lechman, Jeremy B.},
 title =   {A soft departure from jamming: the compaction of deformable
            granular matter under high pressures},
 journal = {Soft Matter},
 year =    2024,
 volume =  20,
 number =  8,
 pages =   {1702--1718}
}

- RHEO package: doi:10.1063/5.0228823

@article{Palermo2024,
 journal = {Physics of Fluids},
 title = {Reproducing hydrodynamics and elastic objects: A hybrid mesh-free model framework for dynamic multi-phase flows},
 volume = {36},
 number = {11},
 pages = {113337},
 year = {2024},
 issn = {1070-6631},
 doi = {https://doi.org/10.1063/5.0228823},
 author = {Palermo, Eric T. and Wolf, Ki T. and Clemmer, Joel T. and O'Connor, Thomas C.},
}

- @article{ApplMathModel.130.310,
 title = {A hybrid smoothed-particle hydrodynamics model of oxide skins on molten aluminum},
 journal = {Applied Mathematical Modelling},
 volume = {130},
 pages = {310-326},
 year = {2024},
 issn = {0307-904X},
 doi = {https://doi.org/10.1016/j.apm.2024.02.027},
 author = {Joel T. Clemmer and Flint Pierce and Thomas C. O'Connor and Thomas D. Nevins and Elizabeth M.C. Jones and Jeremy B. Lechman and John Tencer},
}

CITE-CITE-CITE-CITE-CITE-CITE-CITE-CITE-CITE-CITE-CITE-CITE-CITE

Generated 0 of 0 mixed pair_coeff terms from geometric mixing rule
Step          Time          KinEng         Press         Atoms
0   0              0              0                   1470
Averages over the last 76 of 151 rows, steps 15000 to 30000:
KinEng Press Atoms
6.21249e-05 0.000107856 2270
Loop time of 235.536 on 1 procs for 30000 steps with 2270 atoms
